
# Lewis structure

@<TRIPOS>MOLECULE

12 12 1
SMALL
USER_CHARGES
@<TRIPOS>ATOM
   1 C1       -4.88494168   3.28453274  -0.00000000  C       1  lewis  -0.0000
   2 C2       -7.18934914   1.95405226   0.00000000  C       1  lewis  -0.0000
   3 C3       -7.18934914  -0.70683311  -0.00000000  C       1  lewis  -0.0000
   4 C4       -4.88494168  -2.03731359  -0.00000000  C       1  lewis  -0.0000
   5 C5       -2.58053422  -0.70683311   0.00000000  C       1  lewis  -0.0000
   6 C6       -2.58053422   1.95405226  -0.00000000  C       1  lewis  -0.0000
   7 H1       -4.88494168   5.21662639   0.00000000  H       1  lewis  -0.0000
   8 H2       -8.86258812   2.92011798  -0.00000000  H       1  lewis  -0.0000
   9 H3       -8.86258812  -1.67289883   0.00000000  H       1  lewis  -0.0000
  10 H4       -4.88494168  -3.96940723   0.00000000  H       1  lewis  -0.0000
  11 H5       -0.90729524  -1.67289883  -0.00000000  H       1  lewis  -0.0000
  12 H6       -0.90729524   2.92011798   0.00000000  H       1  lewis  -0.0000
@<TRIPOS>BOND
   1      1      2      ar
   2      1      6      ar
   3      1      7      1
   4      2      3      ar
   5      2      8      1
   6      3      4      ar
   7      3      9      1
   8      4      5      ar
   9      4     10      1
  10      5      6      ar
  11      5     11      1
  12      6     12      1
@<TRIPOS>SUBSTRUCTURE
1     lewis   1
